***SUBCKT-DEFINITIONS***
.SUBCKT subc SUBCON sub
.ENDS
